%chk=/home/gegroenh/im_S1.chk 
#p 6-31g geom=connectivity
#p casscf(2,2,nroot=2)

comment
1 1
 C                 -0.67850745    0.00000000    0.00000214
 H                 -1.21382920   -0.92768533   -0.00000877
 H                 -1.21382929    0.92768533    0.00002371
 H                  1.13693295    0.85144265    0.00001049
 H                  1.13693288   -0.85144264   -0.00002024
 N                  0.60354820    0.00000000   -0.00000258

 1 2 1.0 3 1.0 6 2.0
 2
 3
 4 6 1.0
 5 6 1.0
 6
 
 
 
