%NProc=1
%Mem=1GB
%Chk=PES_Opt_CH3CHCH2.chk
#p opt=modredundant hf/3-21g

Hydrogen atom migration PES

0 1
 C                 -1.27051500   -0.22247300   -0.00000200
 H                 -2.22577000    0.26685300   -0.00000200
 H                 -1.28510700   -1.29696200   -0.00001100
 C                 -0.14350900    0.45672400    0.00001600
 H                 -0.17197800    1.53256300   -0.00005500
 C                  1.23364500   -0.16153700    0.00000100
 H                  1.17645900   -1.24331300   -0.00041900
 H                  1.79448100    0.15260400   -0.87526600
 H                  1.79418500    0.15196900    0.87566100

B 1 8 S 21 -0.100000


