%mem=16GB
%nprocs=8
#P pm6 scf(xqc) scan

benzene nanotube scan

0 1
! 49 Fragment C48X nanotube
C        0.000000000      2.427540000      3.559669000
C        1.196378000      2.072187000      2.878637000
C        2.102311000      1.213770000      3.559669000
C        2.392756000      0.000000000      2.878637000
C        2.102311000     -1.213770000      3.559669000
C        1.196378000     -2.072187000      2.878637000
C        0.000000000     -2.427540000      3.559669000
C       -1.196378000     -2.072187000      2.878637000
C       -2.102311000     -1.213770000      3.559669000
C       -2.392756000      0.000000000      2.878637000
C       -2.102311000      1.213770000      3.559669000
C       -1.196378000      2.072187000      2.878637000
C       -1.196582000      2.072541000      1.430870000
C        0.000000000      2.404111000      0.720134000
C        1.196582000      2.072541000      1.430870000
C        2.082021000      1.202055000      0.720134000
C        2.393165000      0.000000000      1.430870000
C        2.082021000     -1.202055000      0.720134000
C        1.196582000     -2.072541000      1.430870000
C        0.000000000     -2.404111000      0.720134000
C       -1.196582000     -2.072541000      1.430870000
C       -2.082021000     -1.202055000      0.720134000
C       -2.393165000      0.000000000      1.430870000
C       -2.082021000      1.202055000      0.720134000
C       -2.082021000      1.202055000     -0.720134000
C       -1.196582000      2.072541000     -1.430870000
C        0.000000000      2.404111000     -0.720134000
C        1.196582000      2.072541000     -1.430870000
C        2.082021000      1.202055000     -0.720134000
C        2.393165000      0.000000000     -1.430870000
C        2.082021000     -1.202055000     -0.720134000
C        1.196582000     -2.072541000     -1.430870000
C        0.000000000     -2.404111000     -0.720134000
C       -1.196582000     -2.072541000     -1.430870000
C       -2.082021000     -1.202055000     -0.720134000
C       -2.393165000      0.000000000     -1.430870000
C       -2.392756000      0.000000000     -2.878637000
C       -2.102311000      1.213770000     -3.559669000
C       -1.196378000      2.072187000     -2.878637000
C        0.000000000      2.427540000     -3.559669000
C        1.196378000      2.072187000     -2.878637000
C        2.102311000      1.213770000     -3.559669000
C        2.392756000      0.000000000     -2.878637000
C        2.102311000     -1.213770000     -3.559669000
C        1.196378000     -2.072187000     -2.878637000
C        0.000000000     -2.427540000     -3.559669000
C       -1.196378000     -2.072187000     -2.878637000
C       -2.102311000     -1.213770000     -3.559669000
X       -1.041010500     -1.803083000      0.000000000
! 13 Fragment C6H6X benzene
X        49   scan        35   90.000      22   90.000
C        50   xcdist      49   90.000      35   00.000
C        50   xcdist      51   sixty       49   ninety
C        50   xcdist      52   sixty       49   ninety
C        50   xcdist      53   sixty       49   ninety
C        50   xcdist      54   sixty       49   ninety
C        50   xcdist      55   sixty       49   ninety
H        51   chdist      52  onetwen      53  oneeigh
H        52   chdist      53  onetwen      54  oneeigh
H        53   chdist      54  onetwen      55  oneeigh
H        54   chdist      55  onetwen      56  oneeigh
H        55   chdist      56  onetwen      51  oneeigh
H        56   chdist      51  onetwen      52  oneeigh
! 12 Fragment H12 nanotube cappings
H        0.000000000      2.646957000      4.621016000
H        2.292332000      1.323479000      4.621016000
H        2.292332000     -1.323479000      4.621016000
H        0.000000000     -2.646957000      4.621016000
H       -2.292332000     -1.323479000      4.621016000
H       -2.292332000      1.323479000      4.621016000
H       -2.292332000      1.323479000     -4.621016000
H        0.000000000      2.646957000     -4.621016000
H        2.292332000      1.323479000     -4.621016000
H        2.292332000     -1.323479000     -4.621016000
H        0.000000000     -2.646957000     -4.621016000
H       -2.292332000     -1.323479000     -4.621016000

scan           2.500      25    0.100
xcdist         1.396
chdist         1.086
sixty         60.000
ninety        90.000
onetwen      120.000
oneeigh      180.000

