%NProc=1
%Mem=1GB
%Chk=TS_Opt_CH3CHCH2.chk
#p opt=(calcall,tight,ts) rb3lyp/cc-pvdz int=ultrafine

Transition State calculation Using B3LYP/cc-pVDZ

0 1
 C                 -1.13912400   -0.21831900    0.01485400
 H                 -1.33223100   -0.77367700   -0.88835300
 H                 -2.04696600    0.06309300    0.52856900
 C                 -0.00000100    0.60256100    0.00000100
 H                 -0.00000100    1.67734200   -0.00000200
 C                  1.13912400   -0.21831800   -0.01485400
 H                  1.33223700   -0.77367100    0.88835400
 H                  0.00000000   -1.25172000    0.00000600
 H                  2.04696300    0.06309000   -0.52857700


